[General]
description = Two adhoc host communicating via AODV, in order to debug
network =wirelessNetwork
sim-time-limit = 60s

*.host*.ipv4.arp.typename = "GlobalArp"

#Host configuration
*.host.numApps = 1
*.host.app[0].typename = "UdpBasicApp"
*.host.app[0].destAddresses = "host20"
*.host.app[0].destPort = 5000
*.host.app[0].messageLength = 1000B
*.host.app[0].sendInterval = exponential(1s)
*.host.app[0].packetName = "UDPData"

*.host20.numApps = 1
*.host20.app[0].typename = "UdpSinkApp"
*.host20.app[0].localPort = 5000 

#Routing
#*.configurator.addStaticRoutes = false
#*.*.routingApp.typename = "Aodv"


**.wlan[*].typename = "AckingWirelessInterface"
**.wlan[*].bitrate = 2Mbps
**.wlan[*].mac.headerLength = 23B
**.wlan[*].radio.typename = "UnitDiskRadio"
**.wlan[*].radio.transmitter.headerLength = 96b
**.wlan[*].radio.transmitter.interferenceRange = 0m
**.wlan[*].radio.transmitter.detectionRange = 0m
**.wlan[*].radio.receiver.ignoreInterference = true
**.wlan[*].radio.transmitter.communicationRange = 150m

*.host*.**.bitrate = 1Mbps

*.host*.wlan[0].radio.displayCommunicationRange = true

*.visualizer.sceneVisualizer.descriptionFigure = "title"

*.visualizer.mediumVisualizer.displaySignals = true

*.visualizer.physicalLinkVisualizer.displayLinks = true
*.visualizer.physicalLinkVisualizer.packetFilter = "UDPData*"

#Mobility model
#*.host[*].mobility.typename = "RandomWaypointMobility"
#*.host[*].mobility.speed = 100mps


#**.constraintAreaMinX = 0m
#**.constraintAreaMaxX = 1000m
#**.constraintAreaMinY = 0m
#**.constraintAreaMaxY = 1000m
#**.constraintAreaMinZ = 0m
#**.constraintAreaMaxZ = 0m


